2018-04-11 11:45:07: case.setup starting 
 ---------------------------------------------------
2018-04-11 11:45:09: case.setup success 
 ---------------------------------------------------
2018-04-11 11:46:35: case.build starting 
 ---------------------------------------------------
2018-04-11 11:53:13: case.build success 
 ---------------------------------------------------
2018-04-11 11:54:55: case.submit starting 
 ---------------------------------------------------
2018-04-11 11:55:02: case.submit success 
 ---------------------------------------------------
2018-04-11 11:55:27: case.run starting 
 ---------------------------------------------------
2018-04-11 11:56:45: case.run error 
ERROR: RUN FAIL: Command 'mpiexec_mpt  -np 612 -p "%g:"  omplace -tm open64  /glade/scratch/mwgraham/ctsm_tillage_branch_cult_false_test_041118a/bld/cesm.exe  >> cesm.log.$LID 2>&1 ' failed
See log file for details: /glade/scratch/mwgraham/ctsm_tillage_branch_cult_false_test_041118a/run/cesm.log.180411-115527
 ---------------------------------------------------
